
 OpenBabel06212212043D

 19 18  0  0  0  0  0  0  0  0999 V2000
    0.9808    0.0634   -0.1022 C   0  0  0  0  0  0  0  0  0  0  0  0
    2.5020    0.0435   -0.0939 C   0  0  0  0  0  0  0  0  0  0  0  0
    3.0242   -1.1953    0.6294 C   0  0  0  0  0  0  0  0  0  0  0  0
    4.5494   -1.2482    0.6595 C   0  0  0  0  0  0  0  0  0  0  0  0
    5.0533   -2.4867    1.3822 C   0  0  0  0  0  0  0  0  0  0  0  0
    4.2986   -3.3269    1.8681 O   0  0  0  0  0  0  0  0  0  0  0  0
    6.5448   -2.6576    1.4823 C   0  0  0  0  0  0  0  0  0  0  0  0
    0.6127    0.9529   -0.6217 H   0  0  0  0  0  0  0  0  0  0  0  0
    0.5845    0.0763    0.9185 H   0  0  0  0  0  0  0  0  0  0  0  0
    0.5811   -0.8193   -0.6123 H   0  0  0  0  0  0  0  0  0  0  0  0
    2.8731    0.9496    0.3981 H   0  0  0  0  0  0  0  0  0  0  0  0
    2.8697    0.0580   -1.1261 H   0  0  0  0  0  0  0  0  0  0  0  0
    2.6377   -2.0967    0.1368 H   0  0  0  0  0  0  0  0  0  0  0  0
    2.6385   -1.2091    1.6567 H   0  0  0  0  0  0  0  0  0  0  0  0
    4.9463   -0.3665    1.1769 H   0  0  0  0  0  0  0  0  0  0  0  0
    4.9458   -1.2629   -0.3620 H   0  0  0  0  0  0  0  0  0  0  0  0
    7.0641   -1.8258    1.0000 H   0  0  0  0  0  0  0  0  0  0  0  0
    6.8340   -3.5872    0.9870 H   0  0  0  0  0  0  0  0  0  0  0  0
    6.8315   -2.6859    2.5383 H   0  0  0  0  0  0  0  0  0  0  0  0
  1  2  1  0  0  0  0
  1  8  1  0  0  0  0
  1  9  1  0  0  0  0
  1 10  1  0  0  0  0
  2  3  1  0  0  0  0
  2 11  1  0  0  0  0
  2 12  1  0  0  0  0
  3  4  1  0  0  0  0
  3 13  1  0  0  0  0
  3 14  1  0  0  0  0
  4  5  1  0  0  0  0
  4 15  1  0  0  0  0
  4 16  1  0  0  0  0
  5  6  2  0  0  0  0
  5  7  1  0  0  0  0
  7 17  1  0  0  0  0
  7 18  1  0  0  0  0
  7 19  1  0  0  0  0
M  END
