
 OpenBabel06212212043D

 19 19  0  0  0  0  0  0  0  0999 V2000
    1.4220   -0.1779    0.0816 C   0  0  0  0  0  0  0  0  0  0  0  0
    0.5696   -1.2823    0.0432 C   0  0  0  0  0  0  0  0  0  0  0  0
   -0.8126   -1.1000   -0.0437 C   0  0  0  0  0  0  0  0  0  0  0  0
   -1.3529    0.1904   -0.0989 C   0  0  0  0  0  0  0  0  0  0  0  0
   -0.4869    1.2939   -0.0506 C   0  0  0  0  0  0  0  0  0  0  0  0
    0.8935    1.1092    0.0398 C   0  0  0  0  0  0  0  0  0  0  0  0
   -2.8446    0.4030   -0.2087 C   0  0  0  0  0  0  0  0  0  0  0  0
   -3.5503    0.4614    1.1462 C   0  0  0  0  0  0  0  0  0  0  0  0
   -3.1242    1.5828    1.9123 O   0  0  0  0  0  0  0  0  0  0  0  0
    2.4977   -0.3224    0.1424 H   0  0  0  0  0  0  0  0  0  0  0  0
    0.9860   -2.2868    0.0724 H   0  0  0  0  0  0  0  0  0  0  0  0
   -1.4594   -1.9729   -0.0784 H   0  0  0  0  0  0  0  0  0  0  0  0
   -0.8862    2.3051   -0.0874 H   0  0  0  0  0  0  0  0  0  0  0  0
    1.5552    1.9711    0.0703 H   0  0  0  0  0  0  0  0  0  0  0  0
   -3.2780   -0.4065   -0.8097 H   0  0  0  0  0  0  0  0  0  0  0  0
   -3.0289    1.3329   -0.7615 H   0  0  0  0  0  0  0  0  0  0  0  0
   -3.3861   -0.4475    1.7332 H   0  0  0  0  0  0  0  0  0  0  0  0
   -4.6291    0.5688    0.9883 H   0  0  0  0  0  0  0  0  0  0  0  0
   -2.1914    1.4229    2.1451 H   0  0  0  0  0  0  0  0  0  0  0  0
  1  2  2  0  0  0  0
  1  6  1  0  0  0  0
  1 10  1  0  0  0  0
  2  3  1  0  0  0  0
  2 11  1  0  0  0  0
  3  4  2  0  0  0  0
  3 12  1  0  0  0  0
  4  5  1  0  0  0  0
  4  7  1  0  0  0  0
  5  6  2  0  0  0  0
  5 13  1  0  0  0  0
  6 14  1  0  0  0  0
  7  8  1  0  0  0  0
  7 15  1  0  0  0  0
  7 16  1  0  0  0  0
  8  9  1  0  0  0  0
  8 17  1  0  0  0  0
  8 18  1  0  0  0  0
  9 19  1  0  0  0  0
M  END
