
 OpenBabel06212212043D

 18 18  0  0  0  0  0  0  0  0999 V2000
    1.3861   -0.1813    0.0449 C   0  0  0  0  0  0  0  0  0  0  0  0
    0.5522   -1.2963    0.0206 C   0  0  0  0  0  0  0  0  0  0  0  0
   -0.8349   -1.1339   -0.0357 C   0  0  0  0  0  0  0  0  0  0  0  0
   -1.4051    0.1465   -0.0593 C   0  0  0  0  0  0  0  0  0  0  0  0
   -0.5532    1.2597   -0.0411 C   0  0  0  0  0  0  0  0  0  0  0  0
    0.8341    1.0970    0.0149 C   0  0  0  0  0  0  0  0  0  0  0  0
   -2.8559    0.3631   -0.1790 C   0  0  0  0  0  0  0  0  0  0  0  0
   -3.7829   -0.4697    0.3153 C   0  0  0  0  0  0  0  0  0  0  0  0
   -5.2177   -0.1803    0.1240 C   0  0  0  0  0  0  0  0  0  0  0  0
   -6.0815   -0.9271    0.5685 O   0  0  0  0  0  0  0  0  0  0  0  0
    2.4649   -0.3089    0.0812 H   0  0  0  0  0  0  0  0  0  0  0  0
    0.9803   -2.2955    0.0362 H   0  0  0  0  0  0  0  0  0  0  0  0
   -1.4572   -2.0244   -0.0768 H   0  0  0  0  0  0  0  0  0  0  0  0
   -0.9593    2.2685   -0.0669 H   0  0  0  0  0  0  0  0  0  0  0  0
    1.4832    1.9688    0.0302 H   0  0  0  0  0  0  0  0  0  0  0  0
   -3.1492    1.2689   -0.7055 H   0  0  0  0  0  0  0  0  0  0  0  0
   -3.5544   -1.3732    0.8671 H   0  0  0  0  0  0  0  0  0  0  0  0
   -5.4643    0.7335   -0.4406 H   0  0  0  0  0  0  0  0  0  0  0  0
  1  2  2  0  0  0  0
  1  6  1  0  0  0  0
  1 11  1  0  0  0  0
  2  3  1  0  0  0  0
  2 12  1  0  0  0  0
  3  4  2  0  0  0  0
  3 13  1  0  0  0  0
  4  5  1  0  0  0  0
  4  7  1  0  0  0  0
  5  6  2  0  0  0  0
  5 14  1  0  0  0  0
  6 15  1  0  0  0  0
  7  8  2  0  0  0  0
  7 16  1  0  0  0  0
  8  9  1  0  0  0  0
  8 17  1  0  0  0  0
  9 10  2  0  0  0  0
  9 18  1  0  0  0  0
M  END
