
 OpenBabel06212212043D

 27 26  0  0  0  0  0  0  0  0999 V2000
    1.0296   -0.1727    0.2077 C   0  0  0  0  0  0  0  0  0  0  0  0
    2.5238   -0.0680    0.0831 C   0  0  0  0  0  0  0  0  0  0  0  0
    3.1526    0.6519   -0.8697 C   0  0  0  0  0  0  0  0  0  0  0  0
    2.4445    1.4377   -1.9418 C   0  0  0  0  0  0  0  0  0  0  0  0
    3.3878    2.1148   -2.9475 C   0  0  0  0  0  0  0  0  0  0  0  0
    2.6300    2.8766   -4.0232 C   0  0  0  0  0  0  0  0  0  0  0  0
    2.7733    4.2117   -4.1437 C   0  0  0  0  0  0  0  0  0  0  0  0
    2.0723    5.0334   -5.1559 C   0  0  0  0  0  0  0  0  0  0  0  0
    2.2502    6.2444   -5.2221 O   0  0  0  0  0  0  0  0  0  0  0  0
    1.7459    2.0572   -4.9264 C   0  0  0  0  0  0  0  0  0  0  0  0
    3.3103   -0.8339    1.1115 C   0  0  0  0  0  0  0  0  0  0  0  0
    0.4890    0.3898   -0.5575 H   0  0  0  0  0  0  0  0  0  0  0  0
    0.7057    0.2110    1.1821 H   0  0  0  0  0  0  0  0  0  0  0  0
    0.7159   -1.2193    0.1253 H   0  0  0  0  0  0  0  0  0  0  0  0
    4.2420    0.6680   -0.8797 H   0  0  0  0  0  0  0  0  0  0  0  0
    1.8239    2.2087   -1.4681 H   0  0  0  0  0  0  0  0  0  0  0  0
    1.7789    0.7518   -2.4787 H   0  0  0  0  0  0  0  0  0  0  0  0
    4.0293    1.3666   -3.4313 H   0  0  0  0  0  0  0  0  0  0  0  0
    4.0635    2.7901   -2.4049 H   0  0  0  0  0  0  0  0  0  0  0  0
    3.4245    4.7787   -3.4853 H   0  0  0  0  0  0  0  0  0  0  0  0
    1.3871    4.5108   -5.8374 H   0  0  0  0  0  0  0  0  0  0  0  0
    1.8264    0.9870   -4.7132 H   0  0  0  0  0  0  0  0  0  0  0  0
    2.0297    2.1903   -5.9754 H   0  0  0  0  0  0  0  0  0  0  0  0
    0.6966    2.3411   -4.7948 H   0  0  0  0  0  0  0  0  0  0  0  0
    2.6476   -1.3497    1.8155 H   0  0  0  0  0  0  0  0  0  0  0  0
    3.9465   -0.1602    1.6951 H   0  0  0  0  0  0  0  0  0  0  0  0
    3.9358   -1.5951    0.6337 H   0  0  0  0  0  0  0  0  0  0  0  0
  1  2  1  0  0  0  0
  1 12  1  0  0  0  0
  1 13  1  0  0  0  0
  1 14  1  0  0  0  0
  2  3  2  0  0  0  0
  2 11  1  0  0  0  0
  3  4  1  0  0  0  0
  3 15  1  0  0  0  0
  4  5  1  0  0  0  0
  4 16  1  0  0  0  0
  4 17  1  0  0  0  0
  5  6  1  0  0  0  0
  5 18  1  0  0  0  0
  5 19  1  0  0  0  0
  6  7  2  0  0  0  0
  6 10  1  0  0  0  0
  7  8  1  0  0  0  0
  7 20  1  0  0  0  0
  8  9  2  0  0  0  0
  8 21  1  0  0  0  0
 10 22  1  0  0  0  0
 10 23  1  0  0  0  0
 10 24  1  0  0  0  0
 11 25  1  0  0  0  0
 11 26  1  0  0  0  0
 11 27  1  0  0  0  0
M  END
