
 OpenBabel06212212043D

 17 17  0  0  0  0  0  0  0  0999 V2000
    1.0119    0.0487   -0.0296 C   0  0  0  0  0  0  0  0  0  0  0  0
    2.4313    0.0093   -0.0483 O   0  0  0  0  0  0  0  0  0  0  0  0
    3.0921    1.2094   -0.0595 C   0  0  0  0  0  0  0  0  0  0  0  0
    2.4763    2.4643   -0.0535 C   0  0  0  0  0  0  0  0  0  0  0  0
    3.2465    3.6316   -0.0708 C   0  0  0  0  0  0  0  0  0  0  0  0
    4.6378    3.5551   -0.0934 C   0  0  0  0  0  0  0  0  0  0  0  0
    5.2657    2.3109   -0.0956 C   0  0  0  0  0  0  0  0  0  0  0  0
    4.4935    1.1480   -0.0778 C   0  0  0  0  0  0  0  0  0  0  0  0
    5.1095   -0.0755   -0.0770 O   0  0  0  0  0  0  0  0  0  0  0  0
    0.6472   -0.9829   -0.0423 H   0  0  0  0  0  0  0  0  0  0  0  0
    0.6175    0.5507   -0.9192 H   0  0  0  0  0  0  0  0  0  0  0  0
    0.6439    0.5206    0.8874 H   0  0  0  0  0  0  0  0  0  0  0  0
    1.3969    2.5703   -0.0352 H   0  0  0  0  0  0  0  0  0  0  0  0
    2.7563    4.6021   -0.0663 H   0  0  0  0  0  0  0  0  0  0  0  0
    5.2316    4.4655   -0.1088 H   0  0  0  0  0  0  0  0  0  0  0  0
    6.3498    2.2646   -0.1129 H   0  0  0  0  0  0  0  0  0  0  0  0
    6.0697    0.0546   -0.0587 H   0  0  0  0  0  0  0  0  0  0  0  0
  1  2  1  0  0  0  0
  1 10  1  0  0  0  0
  1 11  1  0  0  0  0
  1 12  1  0  0  0  0
  2  3  1  0  0  0  0
  3  4  2  0  0  0  0
  3  8  1  0  0  0  0
  4  5  1  0  0  0  0
  4 13  1  0  0  0  0
  5  6  2  0  0  0  0
  5 14  1  0  0  0  0
  6  7  1  0  0  0  0
  6 15  1  0  0  0  0
  7  8  2  0  0  0  0
  7 16  1  0  0  0  0
  8  9  1  0  0  0  0
  9 17  1  0  0  0  0
M  END
