
 OpenBabel06212212043D

 22 21  0  0  0  0  0  0  0  0999 V2000
    0.9095    0.0981   -0.0210 C   0  0  0  0  0  0  0  0  0  0  0  0
    2.4291    0.0856   -0.0138 C   0  0  0  0  0  0  0  0  0  0  0  0
    2.9640   -1.0421    0.8671 C   0  0  0  0  0  0  0  0  0  0  0  0
    4.4904   -1.0536    0.8757 C   0  0  0  0  0  0  0  0  0  0  0  0
    5.0209   -2.1814    1.7543 C   0  0  0  0  0  0  0  0  0  0  0  0
    6.5449   -2.2025    1.7682 C   0  0  0  0  0  0  0  0  0  0  0  0
    7.0799   -3.3144    2.6342 C   0  0  0  0  0  0  0  0  0  0  0  0
    6.3839   -4.1122    3.2553 O   0  0  0  0  0  0  0  0  0  0  0  0
    0.5388    0.9092   -0.6546 H   0  0  0  0  0  0  0  0  0  0  0  0
    0.5169    0.2461    0.9896 H   0  0  0  0  0  0  0  0  0  0  0  0
    0.5145   -0.8465   -0.4078 H   0  0  0  0  0  0  0  0  0  0  0  0
    2.7984    1.0505    0.3516 H   0  0  0  0  0  0  0  0  0  0  0  0
    2.7962   -0.0368   -1.0391 H   0  0  0  0  0  0  0  0  0  0  0  0
    2.5894   -2.0055    0.4998 H   0  0  0  0  0  0  0  0  0  0  0  0
    2.5898   -0.9194    1.8906 H   0  0  0  0  0  0  0  0  0  0  0  0
    4.8647   -0.0917    1.2456 H   0  0  0  0  0  0  0  0  0  0  0  0
    4.8646   -1.1767   -0.1476 H   0  0  0  0  0  0  0  0  0  0  0  0
    4.6418   -3.1451    1.3898 H   0  0  0  0  0  0  0  0  0  0  0  0
    4.6439   -2.0628    2.7782 H   0  0  0  0  0  0  0  0  0  0  0  0
    6.9385   -1.2570    2.1552 H   0  0  0  0  0  0  0  0  0  0  0  0
    6.9364   -2.3476    0.7562 H   0  0  0  0  0  0  0  0  0  0  0  0
    8.1804   -3.3803    2.6851 H   0  0  0  0  0  0  0  0  0  0  0  0
  1  2  1  0  0  0  0
  1  9  1  0  0  0  0
  1 10  1  0  0  0  0
  1 11  1  0  0  0  0
  2  3  1  0  0  0  0
  2 12  1  0  0  0  0
  2 13  1  0  0  0  0
  3  4  1  0  0  0  0
  3 14  1  0  0  0  0
  3 15  1  0  0  0  0
  4  5  1  0  0  0  0
  4 16  1  0  0  0  0
  4 17  1  0  0  0  0
  5  6  1  0  0  0  0
  5 18  1  0  0  0  0
  5 19  1  0  0  0  0
  6  7  1  0  0  0  0
  6 20  1  0  0  0  0
  6 21  1  0  0  0  0
  7  8  2  0  0  0  0
  7 22  1  0  0  0  0
M  END
