
 OpenBabel06212212043D

 25 24  0  0  0  0  0  0  0  0999 V2000
    0.9071    0.0594    0.0482 C   0  0  0  0  0  0  0  0  0  0  0  0
    2.4261    0.0728    0.0394 C   0  0  0  0  0  0  0  0  0  0  0  0
    2.9587    1.0603   -0.9963 C   0  0  0  0  0  0  0  0  0  0  0  0
    4.4841    1.0760   -1.0120 C   0  0  0  0  0  0  0  0  0  0  0  0
    5.0095    2.0685   -2.0477 C   0  0  0  0  0  0  0  0  0  0  0  0
    6.5360    2.0855   -2.0578 C   0  0  0  0  0  0  0  0  0  0  0  0
    7.0742    3.0701   -3.0882 C   0  0  0  0  0  0  0  0  0  0  0  0
    8.5834    3.0977   -3.1115 C   0  0  0  0  0  0  0  0  0  0  0  0
    9.3063    2.4164   -2.3937 O   0  0  0  0  0  0  0  0  0  0  0  0
    0.5386   -0.6510    0.7942 H   0  0  0  0  0  0  0  0  0  0  0  0
    0.5140   -0.2365   -0.9292 H   0  0  0  0  0  0  0  0  0  0  0  0
    0.5099    1.0493    0.2933 H   0  0  0  0  0  0  0  0  0  0  0  0
    2.7971   -0.9350   -0.1810 H   0  0  0  0  0  0  0  0  0  0  0  0
    2.7932    0.3434    1.0360 H   0  0  0  0  0  0  0  0  0  0  0  0
    2.5825    2.0664   -0.7725 H   0  0  0  0  0  0  0  0  0  0  0  0
    2.5832    0.7893   -1.9910 H   0  0  0  0  0  0  0  0  0  0  0  0
    4.8608    0.0710   -1.2398 H   0  0  0  0  0  0  0  0  0  0  0  0
    4.8615    1.3449   -0.0176 H   0  0  0  0  0  0  0  0  0  0  0  0
    4.6301    3.0727   -1.8219 H   0  0  0  0  0  0  0  0  0  0  0  0
    4.6369    1.7965   -3.0426 H   0  0  0  0  0  0  0  0  0  0  0  0
    6.9139    1.0792   -2.2753 H   0  0  0  0  0  0  0  0  0  0  0  0
    6.9082    2.3534   -1.0609 H   0  0  0  0  0  0  0  0  0  0  0  0
    6.7261    4.0844   -2.8685 H   0  0  0  0  0  0  0  0  0  0  0  0
    6.7314    2.8002   -4.0933 H   0  0  0  0  0  0  0  0  0  0  0  0
    9.0239    3.7972   -3.8435 H   0  0  0  0  0  0  0  0  0  0  0  0
  1  2  1  0  0  0  0
  1 10  1  0  0  0  0
  1 11  1  0  0  0  0
  1 12  1  0  0  0  0
  2  3  1  0  0  0  0
  2 13  1  0  0  0  0
  2 14  1  0  0  0  0
  3  4  1  0  0  0  0
  3 15  1  0  0  0  0
  3 16  1  0  0  0  0
  4  5  1  0  0  0  0
  4 17  1  0  0  0  0
  4 18  1  0  0  0  0
  5  6  1  0  0  0  0
  5 19  1  0  0  0  0
  5 20  1  0  0  0  0
  6  7  1  0  0  0  0
  6 21  1  0  0  0  0
  6 22  1  0  0  0  0
  7  8  1  0  0  0  0
  7 23  1  0  0  0  0
  7 24  1  0  0  0  0
  8  9  2  0  0  0  0
  8 25  1  0  0  0  0
M  END
