
 OpenBabel06212212043D

 16 16  0  0  0  0  0  0  0  0999 V2000
    2.9756    0.0227    0.0549 C   0  0  0  0  0  0  0  0  0  0  0  0
    1.4757    0.0008    0.0143 C   0  0  0  0  0  0  0  0  0  0  0  0
    0.7725   -1.2112    0.0061 C   0  0  0  0  0  0  0  0  0  0  0  0
   -0.6246   -1.2191   -0.0108 C   0  0  0  0  0  0  0  0  0  0  0  0
   -1.3155   -0.0124   -0.0192 C   0  0  0  0  0  0  0  0  0  0  0  0
   -0.6347    1.1977   -0.0222 C   0  0  0  0  0  0  0  0  0  0  0  0
    0.7607    1.2056   -0.0048 C   0  0  0  0  0  0  0  0  0  0  0  0
   -2.6794    0.0252   -0.0205 O   0  0  0  0  0  0  0  0  0  0  0  0
    3.3930   -0.9899    0.0554 H   0  0  0  0  0  0  0  0  0  0  0  0
    3.3187    0.5263    0.9635 H   0  0  0  0  0  0  0  0  0  0  0  0
    3.3704    0.5486   -0.8195 H   0  0  0  0  0  0  0  0  0  0  0  0
    1.3086   -2.1575    0.0143 H   0  0  0  0  0  0  0  0  0  0  0  0
   -1.1489   -2.1692   -0.0158 H   0  0  0  0  0  0  0  0  0  0  0  0
   -1.1866    2.1330   -0.0328 H   0  0  0  0  0  0  0  0  0  0  0  0
    1.2875    2.1570   -0.0019 H   0  0  0  0  0  0  0  0  0  0  0  0
   -3.0115   -0.8852    0.0399 H   0  0  0  0  0  0  0  0  0  0  0  0
  1  2  1  0  0  0  0
  1  9  1  0  0  0  0
  1 10  1  0  0  0  0
  1 11  1  0  0  0  0
  2  3  2  0  0  0  0
  2  7  1  0  0  0  0
  3  4  1  0  0  0  0
  3 12  1  0  0  0  0
  4  5  2  0  0  0  0
  4 13  1  0  0  0  0
  5  6  1  0  0  0  0
  5  8  1  0  0  0  0
  6  7  2  0  0  0  0
  6 14  1  0  0  0  0
  7 15  1  0  0  0  0
  8 16  1  0  0  0  0
M  END
